PDEQ 2020  5 22  8 46  6.80  22.4000 -108.1600  10.0 0.0 6.1 OFF COAST OF CENTRAL MEX
PDEW 2020  3 18 13  9 31.40  40.7500 -112.1100   9.5 0.0 5.7 UTAH 
PDEW 2020  3 31 23 52 31.10  44.4600 -115.1400  14.5 0.0 6.5 WESTERN IDAHO
PDEQ 2020  8  9 12  7 37.60  36.4800  -81.0900   3.7 0.0 5.1 NORTH CAROLINA
PDEW 2019  9 24  3 23 35.20  19.0900  -67.2800  11.0 0.0 6.0 MONA PASSAGE 
PDEQ 2020  5 15 11  3 27.40  38.1600 -117.8800   2.8 0.0 6.5 NEVADA
PDEW 2019  9  2 22 45 48.80  23.7800  -45.2200  10.0 0.0 5.9 NORTHERN MID-ATLANTIC RI
PDEW 2020  6 21 19  7 55.00  66.3900  -18.6900  10.0 0.0 6.0 ICELAND REGION
